32
Adenosine
C          0.99780        0.54800        0.55510
N          0.50730       -0.59360        0.05790
C         -0.81000       -0.67980       -0.21870
C         -1.63810        0.44290        0.02080
C         -0.97870        1.58660        0.54380
N          0.34920        1.68350        0.83200
N         -1.95520        2.54830        0.68610
C         -3.12290        1.92820        0.28910
N         -2.99430        0.69750       -0.13430
C         -1.76470        3.92500        1.24140
C         -0.69150        4.70330        0.43840
C         -1.45460        5.92710       -0.04840
C         -2.88530        5.38690       -0.11800
O         -2.97540        4.60630        1.06550
C         -4.03200        6.41380       -0.17650
O         -3.81480        7.50930        0.69290
O         -0.95000        6.36360       -1.29830
O          0.39650        5.14920        1.22310
N         -1.27490       -1.83270       -0.70630
H          2.05970        0.55300        0.75930
H         -4.08480        2.42260        0.32410
H         -1.52100        3.76730        2.29340
H         -0.34020        4.09850       -0.39970
H         -1.39110        6.72920        0.68970
H         -2.98060        4.70470       -0.96590
H         -4.97980        5.93040        0.06360
H         -4.12270        6.80250       -1.19160
H         -4.62330        7.99180        0.78830
H         -1.31830        7.21810       -1.47110
H          0.99270        5.58060        0.62900
H         -0.64320       -2.60280       -0.85050
H         -2.26190       -1.90160       -0.90470
