47
ATP
C          0.47870        0.68500       -0.70620
N         -0.29550       -0.22790       -1.30520
C         -1.63490       -0.15540       -1.15980
C         -2.18550        0.88750       -0.37660
C         -1.24300        1.78050        0.19630
N          0.11040        1.71790        0.05900
N         -1.98000        2.69930        0.90850
C         -3.29340        2.30440        0.74500
N         -3.47480        1.25500       -0.01500
C         -1.41230        3.81520        1.72400
C         -0.66060        4.82030        0.82600
C         -1.47730        6.10290        0.95880
C         -2.83640        5.61550        1.48330
O         -2.48110        4.50630        2.29760
C         -3.56960        6.61300        2.40210
O         -3.93590        7.81840        1.75910
P         -4.98980        7.81010        0.52830
O         -6.00090        6.72190        0.58250
O         -3.97630        7.75410       -0.73010
O         -5.52690        9.33540        0.52140
P         -6.58130        9.99620       -0.51610
O         -6.36590        9.59520       -1.93450
O         -8.01610        9.58530        0.10960
O         -6.44730       11.57790       -0.16230
P         -7.29070       12.85890       -0.69040
O         -7.55040       12.98500       -2.14660
O         -8.60870       12.86780        0.23980
O         -6.46020       14.09630       -0.07120
O         -1.54030        6.72150       -0.31450
O          0.65730        5.08550        1.26090
N         -2.38230       -1.08320       -1.76290
H          1.54340        0.57030       -0.85970
H         -4.12280        2.81730        1.21510
H         -0.78690        3.31550        2.46580
H         -0.64200        4.45240       -0.20210
H         -1.03200        6.78190        1.68880
H         -3.46870        5.26340        0.66650
H         -2.94400        6.86440        3.25830
H         -4.46840        6.14480        2.80690
H         -4.43020        7.93060       -1.54520
H         -8.41220        8.87380       -0.36980
H         -9.38870       12.99540       -0.27580
H         -6.19330       14.69490       -0.75000
H         -2.34520        7.23040       -0.38150
H          1.04910        5.63930        0.60100
H         -1.93790       -1.81270       -2.29560
H         -3.38440       -1.02940       -1.65430
