21
CitricAcid
C          0.99700       -0.06513       -0.10584
C          0.48361       -1.45080       -0.38286
O         -0.30195       -2.11120        0.27452
O          0.96285       -1.92847       -1.55104
C          0.50861        0.51101        1.22719
C          1.01912        1.93401        1.49067
C          0.50920        2.97717        0.54031
O         -0.28410        3.86296        0.81068
O          1.03335        2.87758       -0.69269
C         -1.02329        0.50493        1.33702
O         -1.65319        0.12104        2.31140
O         -1.65118        1.05802        0.28288
O          1.08662       -0.28595        2.28367
H          0.65997        0.54368       -0.94940
H          2.09239       -0.11449       -0.10796
H          0.55118       -2.81384       -1.63764
H          0.72041        2.24820        2.50103
H          2.11556        1.96791        1.49953
H          0.59055        3.58589       -1.20720
H         -2.60005        1.05774        0.53666
H          0.43875       -0.29841        3.01817
