37
gluthaione
C          2.62350        1.66720        0.39130
C          1.45250        1.54360       -0.60130
C          0.32940        0.66420       -0.05810
O          0.58030       -0.42200        0.45770
N         -0.91530        1.12930       -0.17710
C         -2.12030        0.50140        0.34820
C         -2.55240       -0.68090       -0.55290
S         -3.73610       -1.77710        0.29050
C         -3.17460        1.60700        0.52350
O         -2.97870        2.73110        0.05580
N         -4.29180        1.29710        1.18640
C         -5.42630        2.20080        1.33560
C         -6.33350        2.15550        0.10440
O         -6.30320        1.27890       -0.75510
O         -7.20830        3.19020        0.06380
C          3.74740        2.58110       -0.12750
C          4.97880        2.52060        0.79050
O          5.35090        3.51480        1.40960
O          5.62730        1.33600        0.88640
N          3.26540        3.95690       -0.25240
H          2.25830        2.02980        1.35370
H          3.02490        0.66970        0.58220
H          1.80280        1.11300       -1.53950
H          1.05990        2.53310       -0.83890
H         -1.06980        2.05990       -0.54610
H         -1.88080        0.11920        1.34290
H         -1.69100       -1.29020       -0.82830
H         -2.99370       -0.31630       -1.48180
H         -3.84020       -2.66460       -0.70400
H         -4.42660        0.32790        1.43930
H         -5.08200        3.22330        1.49860
H         -6.00540        1.91070        2.21190
H         -7.71190        3.11750       -0.73070
H          4.06400        2.23250       -1.11170
H          6.34610        1.44140        1.48730
H          4.01450        4.54530       -0.59080
H          3.07250        4.32380        0.67000
