22
Gulonolactone
C          0.88954        0.11370        0.10585
C          0.52636       -1.32816       -0.26126
C          1.11276       -2.38236        0.69285
C          0.94606       -3.81927        0.19252
C          0.53928       -4.62277        1.41896
C          0.17678       -3.56011        2.43651
O         -0.28904       -3.76322        3.54911
O          0.46295       -2.31057        1.97115
O         -0.48976       -5.55806        1.14165
O         -0.00195       -3.98429       -0.86723
O         -0.90588       -1.47655       -0.27498
O          0.29773        0.49529        1.34225
H          0.49363        0.79451       -0.65537
H          1.97392        0.25174        0.15887
H          0.88621       -1.52023       -1.27810
H          2.17168       -2.17159        0.87975
H          1.90757       -4.17557       -0.19601
H          1.40404       -5.16666        1.81401
H         -1.11572       -5.11909        0.53428
H         -0.68291       -3.27998       -0.81107
H         -1.23924       -0.88683        0.43762
H          0.68791       -0.04829        2.05226
