32
Pantothenic Acid
C          0.57365       -2.13092       -0.43532
C          0.58310       -2.61608        1.03270
C         -0.83790       -3.09472        1.39842
C          1.52624       -3.83899        1.12758
O          2.82644       -3.50286        0.63398
C          1.03960       -1.47235        2.02189
C          0.46387       -0.08591        1.61425
O         -0.75504        0.06855        1.47076
N          1.23831        1.00563        1.38149
C          2.66148        1.27976        1.52342
C          3.32173        1.57103        0.18415
C          2.97418        2.94674       -0.30735
O          3.76044        3.85893       -0.50374
O          1.66141        3.10994       -0.55963
O          2.43379       -1.51814        2.27895
H          0.39591       -2.96837       -1.12066
H          1.52592       -1.66703       -0.71337
H         -0.22100       -1.40142       -0.62253
H         -1.15804       -3.91408        0.74409
H         -0.87571       -3.46435        2.42944
H         -1.57954       -2.29656        1.30193
H          1.63392       -4.16866        2.16688
H          1.15322       -4.69087        0.54743
H          2.82263       -3.67402       -0.32574
H          0.58601       -1.67018        3.00215
H          0.67563        1.79493        1.07875
H          2.73835        2.15172        2.18295
H          3.18571        0.46978        2.02021
H          4.41133        1.54148        0.30643
H          3.05800        0.83519       -0.58272
H          1.58980        4.02738       -0.89962
H          2.87296       -1.97187        1.53042
