37
AICA_ribonucleotide
C         -2.59970       -2.95740        1.03870
N         -3.57710       -2.05830        1.03230
C         -4.50290       -2.58300        0.12320
C         -4.02400       -3.78160       -0.38280
N         -2.78480       -4.00260        0.21950
C         -1.86510       -5.16890        0.01860
C         -2.14270       -6.30790        1.02370
C         -0.73790       -6.77590        1.36170
C          0.04900       -5.46070        1.28810
O         -0.53160       -4.75550        0.19270
C          1.58040       -5.58350        1.19380
O          1.96870       -6.23880       -0.00170
P          2.21190       -5.37420       -1.35250
O          3.01860       -4.13970       -1.19090
O          0.72170       -5.18310       -1.92260
O          2.82390       -6.47400       -2.35350
O         -0.29940       -7.69670        0.38380
O         -2.79550       -5.88400        2.20720
N         -4.55750       -4.68840       -1.30260
C         -5.78780       -1.88480       -0.18730
O         -6.63860       -2.28850       -0.97450
N         -5.92910       -0.75250        0.48800
H         -1.71940       -2.85470        1.65530
H         -2.01860       -5.47130       -1.01840
H         -2.74640       -7.08120        0.54450
H         -0.66380       -7.24400        2.34440
H         -0.18330       -4.88700        2.18790
H          2.04330       -4.59620        1.24720
H          1.96390       -6.15240        2.04110
H          0.13430       -4.93400       -1.21370
H          3.54920       -6.11200       -2.83510
H          0.58470       -7.45130        0.12380
H         -3.14610       -6.64920        2.64050
H         -4.13990       -5.54790       -1.62640
H         -5.46110       -4.48880       -1.71880
H         -6.75000       -0.18600        0.37600
H         -5.16060       -0.52570        1.10500
