43
ampicillin
C          1.82660        0.50920        1.20440
C          0.68550        0.16040        0.23490
C         -0.47880        1.17400        0.35440
N         -1.65690        0.34730        0.22230
C         -1.86010       -1.00040        0.78970
S         -0.07090       -1.43080        0.71510
C         -3.13390       -0.98690       -0.12480
C         -2.92250        0.50000       -0.24890
O         -3.56000        1.46150       -0.61700
N         -4.35930       -1.25820        0.61470
C         -4.70350       -2.45570        1.08810
O         -3.99870       -3.45290        0.92650
C         -6.02700       -2.57120        1.87580
C         -7.10470       -2.13370        0.93780
C         -7.80150       -0.92280        1.16070
C         -8.82020       -0.48910        0.29060
C         -9.16950       -1.26760       -0.82660
C         -8.49870       -2.47970       -1.06570
C         -7.48090       -2.90530       -0.19050
N         -6.22530       -3.93950        2.32590
C         -0.45980        2.38780       -0.59680
O         -0.20120        3.51100       -0.17880
O         -0.74850        2.20590       -1.91290
C          1.24750       -0.02560       -1.19000
H          1.47200        0.56160        2.23460
H          2.27360        1.47320        0.95930
H          2.61660       -0.24160        1.17090
H         -0.50830        1.56850        1.37090
H         -1.84270       -1.97040        0.29010
H         -3.07620       -1.49560       -1.09480
H         -5.00130       -0.48750        0.73050
H         -5.96450       -1.92210        2.75080
H         -7.55830       -0.31400        2.01960
H         -9.33790        0.43980        0.48350
H         -9.95220       -0.93880       -1.49530
H         -8.76480       -3.08460       -1.92070
H         -6.97350       -3.83760       -0.39510
H         -6.95870       -4.37680        1.79070
H         -5.37540       -4.44550        2.08960
H         -0.76270        3.05100       -2.33210
H          1.75510        0.86990       -1.54930
H          0.45710       -0.27180       -1.90050
H          1.97320       -0.83890       -1.22070
