16
guanine
C          0.91640       -0.03610        0.15680
N          0.20730        1.09700        0.23310
C         -1.10530        0.63200        0.21900
C         -1.13730       -0.72370        0.13660
N          0.16980       -1.15410        0.09650
C         -2.37220       -1.49380        0.10520
O         -2.39530       -2.72070        0.02950
N         -3.46770       -0.70560        0.16950
C         -3.40240        0.70700        0.25680
N         -2.28780        1.38530        0.28180
N         -4.63990        1.30730        0.31470
H          1.99700       -0.04810        0.14650
H          0.47870       -2.11250        0.03710
H         -4.35220       -1.18080        0.15260
H         -4.71310        2.31230        0.38140
H         -5.53360        0.84450        0.30060
