35
Moclobemide
C          3.39800       -0.98170        1.27660
C          3.55360       -2.35020        1.96720
O          2.67970       -3.29780        1.35870
C          1.31530       -2.89020        1.41260
C          1.14960       -1.52260        0.72020
N          2.01710       -0.49660        1.30640
C          1.90780        0.79750        0.63250
C          0.56550        1.52690        0.85870
N          0.40710        2.83640        0.21790
C          1.29210        3.59530       -0.44600
O          2.46860        3.29800       -0.63240
C          0.76070        4.92460       -0.90140
C          1.61010        6.05330       -0.90290
C          1.13450        7.30680       -1.33700
C         -0.19320        7.43910       -1.78480
C         -1.04270        6.31680       -1.80400
C         -0.56850        5.06240       -1.36890
Cl        -0.77740        8.97220       -2.31560
H          4.05710       -0.26130        1.76360
H          3.74210       -1.06530        0.24410
H          4.58090       -2.70420        1.87910
H          3.33280       -2.27080        3.03290
H          0.98540       -2.83820        2.45150
H          0.69900       -3.64220        0.91970
H          1.37030       -1.63510       -0.34290
H          0.10330       -1.22780        0.79220
H          2.09370        0.67620       -0.43660
H          2.70310        1.44460        1.00670
H         -0.25920        0.90980        0.50540
H          0.41170        1.65950        1.93030
H         -0.49810        3.26330        0.32960
H          2.63360        5.95580       -0.56710
H          1.78890        8.16630       -1.33020
H         -2.05730        6.42050       -2.16050
H         -1.22990        4.20950       -1.41270
