32
N-Acetyl-D-tryptophan
C          2.95760       -3.97727        0.40944
C          3.55170       -3.66876       -0.92790
O          4.70446       -4.00911       -1.19920
N          2.82450       -3.06689       -1.89809
C          1.64343       -2.17267       -1.91559
C          0.48851       -2.36233       -0.92300
C         -0.14258       -1.09111       -0.39047
C         -0.60152       -0.96715        0.91117
N         -1.16140        0.26760        1.06897
C         -1.08396        0.97506       -0.10452
C         -1.53980        2.26924       -0.39096
C         -1.33000        2.76534       -1.67735
C         -0.69058        1.99154       -2.63755
C         -0.25172        0.69427       -2.33670
C         -0.44414        0.15862       -1.04369
C          1.14456       -2.33360       -3.35784
O          1.58764       -1.73705       -4.33022
O          0.30524       -3.37380       -3.54522
H          3.66949       -4.57604        0.98702
H          2.05522       -4.58154        0.28588
H          2.75903       -3.05716        0.96190
H          3.42308       -2.94699       -2.71178
H          2.05701       -1.16213       -1.81718
H         -0.32332       -2.97209       -1.33476
H          0.82544       -2.90772       -0.04467
H         -0.58845       -1.66746        1.73626
H         -1.58385        0.61473        1.91904
H         -2.04126        2.87252        0.35923
H         -1.66997        3.76702       -1.92975
H         -0.52828        2.39367       -3.63503
H          0.23920        0.13199       -3.12082
H          0.20964       -3.44692       -4.51797
