56
VTV
C          3.57370       -5.81030        0.57130
C          4.15980       -4.38570        0.49630
C          5.45900       -4.41780       -0.33140
C          3.12050       -3.35850       -0.03480
C          3.65950       -1.91690       -0.06740
O          4.24780       -1.47220       -1.05000
N          3.43090       -1.20210        1.03740
C          3.68090        0.21960        1.29520
C          3.03500        1.14590        0.23840
C          1.52800        0.99870        0.10720
C          0.97840        0.26940       -0.96830
C         -0.41700        0.12080       -1.08240
C         -1.26860        0.70430       -0.12610
C         -0.72450        1.43800        0.94680
C          0.67150        1.58470        1.06270
O         -2.61770        0.55280       -0.24670
C          5.16710        0.53100        1.51780
O          5.52660        1.11530        2.53650
N          6.02030        0.13720        0.56780
C          7.46940        0.28140        0.59690
C          7.94070        1.53670       -0.19640
C          7.24240        2.83740        0.24770
C          9.46810        1.73110       -0.12460
C          8.04930       -1.04150        0.09090
O          8.80900       -1.71980        0.77280
O          7.68090       -1.46360       -1.14600
N          1.89900       -3.40760        0.78050
H          3.21780       -6.14590       -0.40330
H          4.32270       -6.52520        0.91350
H          2.74210       -5.87190        1.27330
H          4.43590       -4.09400        1.51160
H          5.25700       -4.64540       -1.37870
H          6.14980       -5.17210        0.04620
H          5.98440       -3.46450       -0.29330
H          2.85580       -3.62350       -1.06050
H          2.90500       -1.72430        1.72710
H          3.19010        0.42910        2.24660
H          3.24680        2.18440        0.49800
H          3.49860        0.99950       -0.73790
H          1.62530       -0.18190       -1.70750
H         -0.83530       -0.43790       -1.90690
H         -1.36600        1.89240        1.68720
H          1.08200        2.14730        1.88900
H         -3.11080        1.01080        0.41580
H          5.63140       -0.39170       -0.20950
H          7.78810        0.38830        1.63570
H          7.68590        1.38160       -1.24630
H          7.37580        3.01190        1.31630
H          7.63930        3.70310       -0.28290
H          6.17160        2.81010        0.04750
H          9.78160        2.60940       -0.68990
H          9.80030        1.86570        0.90560
H         10.00830        0.87900       -0.53770
H          8.10210       -2.28930       -1.31780
H          1.49560       -4.33300        0.76520
H          1.19320       -2.79340        0.39190
